Test_cases/13bus2/pvsystemexample.dss

New XYcurve.MyPvST npts=4 xarray=[0 25 75 100] yarray=[1.2 1 0.8 0.6]
New XYcurve.MyEff npts=4 xarray =[.1 .2 .4 1]  yarray =[0.86 0.90 0.93 0.97]
New loadshape.MyIrrad npts=24 interval=1

mult=[0 0 0 0 0 0 0.1 0.3 0.5 0.7 0.99 1 1 0.99 0.7 0.5 0.3 0 0  0 0 0 0]

New Tshape.Mytemp npts=24 interval=1
temp=[25 25 25 25 25 25 25 25 25 27 30 35 35 37 36 35 35 30 27 25 25 25 25 25]

New PVSystem.PV phases=3 bus1=trafo_pv kv=0.48 irrad=0.98 pmpp=500 temperature=25 pf=1
%cutin=2 %cutout=0 effcurve=MyEff P-tCurve=MyPvST Daily=MyIrrad Tdaily=MyTemp
New PVSystem.PV1 phases=3 bus1=trafo_pv kv=0.48 irrad=0.98 pmpp=500 temperature=25 pf=1
%cutin=2 %cutout=0 effcurve=MyEff P-tCurve=MyPvST Daily=MyIrrad Tdaily=MyTemp
New Transformer.pv_up phases=3 xhl=5.75
wdg=1 bus=trafo_pv kv=0.48 kVA=1000 conn=wye
wdg=2 bus=680 kv=4.16 kVA=1000 conn=wye